<nodes>
    <node id="n0" x="0.0" y="0.0" />
    <node id="n1" x="1000.0" y="0.0" />
</nodes>
